<?xml version="1.0" encoding="UTF-8"?>

<!-- generated on Mon Mar 26 15:35:03 2018 by SUMO netconvert Version 0.32.0
<?xml version="1.0" encoding="UTF-8"?>

<configuration xmlns:xsi="http://www.w3.org/2001/XMLSchema-instance" xsi:noNamespaceSchemaLocation="http://sumo.dlr.de/xsd/netconvertConfiguration.xsd">

    <input>
        <node-files value="multicar.nod.xml"/>
        <edge-files value="multicar.edg.xml"/>
    </input>

    <output>
        <output-file value="multicar.net.xml"/>
    </output>

</configuration>
-->

<net version="0.27" xmlns:xsi="http://www.w3.org/2001/XMLSchema-instance" xsi:noNamespaceSchemaLocation="http://sumo.dlr.de/xsd/net_file.xsd">

    <location netOffset="100.00,100.00" convBoundary="0.00,0.00,200.00,200.00" origBoundary="-100.00,-100.00,100.00,100.00" projParameter="!"/>

    <edge id=":0_0" function="internal">
        <lane id=":0_0_0" index="0" speed="13.90" length="5.00" shape="98.35,104.75 98.16,103.39 97.57,102.43 96.61,101.84 95.25,101.65"/>
    </edge>
    <edge id=":0_1" function="internal">
        <lane id=":0_1_0" index="0" speed="13.90" length="9.50" shape="98.35,104.75 98.35,95.25"/>
    </edge>
    <edge id=":0_2" function="internal">
        <lane id=":0_2_0" index="0" speed="13.90" length="5.28" shape="98.35,104.75 98.75,101.95 99.95,99.95 100.05,99.89"/>
    </edge>
    <edge id=":0_3" function="internal">
        <lane id=":0_3_0" index="0" speed="13.90" length="2.41" shape="98.35,104.75 99.18,103.51 100.00,103.10"/>
    </edge>
    <edge id=":0_16" function="internal">
        <lane id=":0_16_0" index="0" speed="13.90" length="5.04" shape="100.05,99.89 101.95,98.75 104.75,98.35"/>
    </edge>
    <edge id=":0_17" function="internal">
        <lane id=":0_17_0" index="0" speed="13.90" length="2.41" shape="100.00,103.10 100.83,103.51 101.65,104.75"/>
    </edge>
    <edge id=":0_4" function="internal">
        <lane id=":0_4_0" index="0" speed="13.90" length="5.00" shape="104.75,101.65 103.39,101.84 102.43,102.43 101.84,103.39 101.65,104.75"/>
    </edge>
    <edge id=":0_5" function="internal">
        <lane id=":0_5_0" index="0" speed="13.90" length="9.50" shape="104.75,101.65 95.25,101.65"/>
    </edge>
    <edge id=":0_6" function="internal">
        <lane id=":0_6_0" index="0" speed="13.90" length="10.32" shape="104.75,101.65 101.95,101.25 99.95,100.05 98.75,98.05 98.35,95.25"/>
    </edge>
    <edge id=":0_7" function="internal">
        <lane id=":0_7_0" index="0" speed="13.90" length="4.82" shape="104.75,101.65 103.51,100.82 103.10,100.00 103.51,99.17 104.75,98.35"/>
    </edge>
    <edge id=":0_8" function="internal">
        <lane id=":0_8_0" index="0" speed="13.90" length="5.00" shape="101.65,95.25 101.84,96.61 102.43,97.57 103.39,98.16 104.75,98.35"/>
    </edge>
    <edge id=":0_9" function="internal">
        <lane id=":0_9_0" index="0" speed="13.90" length="9.50" shape="101.65,95.25 101.65,104.75"/>
    </edge>
    <edge id=":0_10" function="internal">
        <lane id=":0_10_0" index="0" speed="13.90" length="5.28" shape="101.65,95.25 101.25,98.05 100.05,100.05 99.95,100.11"/>
    </edge>
    <edge id=":0_11" function="internal">
        <lane id=":0_11_0" index="0" speed="13.90" length="2.41" shape="101.65,95.25 100.82,96.49 100.00,96.90"/>
    </edge>
    <edge id=":0_18" function="internal">
        <lane id=":0_18_0" index="0" speed="13.90" length="5.04" shape="99.95,100.11 98.05,101.25 95.25,101.65"/>
    </edge>
    <edge id=":0_19" function="internal">
        <lane id=":0_19_0" index="0" speed="13.90" length="2.41" shape="100.00,96.90 99.17,96.49 98.35,95.25"/>
    </edge>
    <edge id=":0_12" function="internal">
        <lane id=":0_12_0" index="0" speed="13.90" length="5.00" shape="95.25,98.35 96.61,98.16 97.57,97.57 98.16,96.61 98.35,95.25"/>
    </edge>
    <edge id=":0_13" function="internal">
        <lane id=":0_13_0" index="0" speed="13.90" length="9.50" shape="95.25,98.35 104.75,98.35"/>
    </edge>
    <edge id=":0_14" function="internal">
        <lane id=":0_14_0" index="0" speed="13.90" length="10.32" shape="95.25,98.35 98.05,98.75 100.05,99.95 101.25,101.95 101.65,104.75"/>
    </edge>
    <edge id=":0_15" function="internal">
        <lane id=":0_15_0" index="0" speed="13.90" length="4.82" shape="95.25,98.35 96.49,99.18 96.90,100.00 96.49,100.83 95.25,101.65"/>
    </edge>
    <edge id=":e_0" function="internal">
        <lane id=":e_0_0" index="0" speed="13.90" length="4.82" shape="200.00,98.35 201.24,99.18 201.65,100.00 201.24,100.83 200.00,101.65"/>
    </edge>
    <edge id=":n_0" function="internal">
        <lane id=":n_0_0" index="0" speed="13.90" length="4.82" shape="101.65,200.00 100.82,201.24 100.00,201.65 99.17,201.24 98.35,200.00"/>
    </edge>
    <edge id=":s_0" function="internal">
        <lane id=":s_0_0" index="0" speed="13.90" length="4.82" shape="98.35,0.00 99.18,-1.24 100.00,-1.65 100.83,-1.24 101.65,0.00"/>
    </edge>
    <edge id=":w_0" function="internal">
        <lane id=":w_0_0" index="0" speed="13.90" length="4.82" shape="0.00,101.65 -1.24,100.82 -1.65,100.00 -1.24,99.17 0.00,98.35"/>
    </edge>

    <edge id="0_e" from="0" to="e" priority="-1">
        <lane id="0_e_0" index="0" speed="13.90" length="95.25" shape="104.75,98.35 200.00,98.35"/>
    </edge>
    <edge id="0_n" from="0" to="n" priority="-1">
        <lane id="0_n_0" index="0" speed="13.90" length="95.25" shape="101.65,104.75 101.65,200.00"/>
    </edge>
    <edge id="0_s" from="0" to="s" priority="-1">
        <lane id="0_s_0" index="0" speed="13.90" length="95.25" shape="98.35,95.25 98.35,0.00"/>
    </edge>
    <edge id="0_w" from="0" to="w" priority="-1">
        <lane id="0_w_0" index="0" speed="13.90" length="95.25" shape="95.25,101.65 0.00,101.65"/>
    </edge>
    <edge id="e_0" from="e" to="0" priority="-1">
        <lane id="e_0_0" index="0" speed="13.90" length="95.25" shape="200.00,101.65 104.75,101.65"/>
    </edge>
    <edge id="n_0" from="n" to="0" priority="-1">
        <lane id="n_0_0" index="0" speed="13.90" length="95.25" shape="98.35,200.00 98.35,104.75"/>
    </edge>
    <edge id="s_0" from="s" to="0" priority="-1">
        <lane id="s_0_0" index="0" speed="13.90" length="95.25" shape="101.65,0.00 101.65,95.25"/>
    </edge>
    <edge id="w_0" from="w" to="0" priority="-1">
        <lane id="w_0_0" index="0" speed="13.90" length="95.25" shape="0.00,98.35 95.25,98.35"/>
    </edge>

    <junction id="0" type="priority" x="100.00" y="100.00" incLanes="n_0_0 e_0_0 s_0_0 w_0_0" intLanes=":0_0_0 :0_1_0 :0_16_0 :0_17_0 :0_4_0 :0_5_0 :0_6_0 :0_7_0 :0_8_0 :0_9_0 :0_18_0 :0_19_0 :0_12_0 :0_13_0 :0_14_0 :0_15_0" shape="96.75,104.75 103.25,104.75 104.75,103.25 104.75,96.75 103.25,95.25 96.75,95.25 95.25,96.75 95.25,103.25">
        <request index="0" response="0000000000000000" foes="1000010000100000" cont="0"/>
        <request index="1" response="0000000000000000" foes="0111110001100000" cont="0"/>
        <request index="2" response="0000001100000000" foes="0110001111100000" cont="1"/>
        <request index="3" response="0100001000010000" foes="0100001000010000" cont="1"/>
        <request index="4" response="0000001000000000" foes="0100001000001000" cont="0"/>
        <request index="5" response="0000011000000111" foes="1100011000000111" cont="0"/>
        <request index="6" response="0011011000000110" foes="0011111000000110" cont="0"/>
        <request index="7" response="0010000100000100" foes="0010000100000100" cont="0"/>
        <request index="8" response="0000000000000000" foes="0010000010000100" cont="0"/>
        <request index="9" response="0000000000000000" foes="0110000001111100" cont="0"/>
        <request index="10" response="0000000000000011" foes="1110000001100011" cont="1"/>
        <request index="11" response="0001000001000010" foes="0001000001000010" cont="1"/>
        <request index="12" response="0000000000000010" foes="0000100001000010" cont="0"/>
        <request index="13" response="0000011100000110" foes="0000011111000110" cont="0"/>
        <request index="14" response="0000011000110110" foes="0000011000111110" cont="0"/>
        <request index="15" response="0000010000100001" foes="0000010000100001" cont="0"/>
    </junction>
    <junction id="e" type="priority" x="200.00" y="100.00" incLanes="0_e_0" intLanes=":e_0_0" shape="200.00,100.05 200.00,96.75 200.00,99.95">
        <request index="0" response="0" foes="0" cont="0"/>
    </junction>
    <junction id="n" type="priority" x="100.00" y="200.00" incLanes="0_n_0" intLanes=":n_0_0" shape="99.95,200.00 103.25,200.00 100.05,200.00">
        <request index="0" response="0" foes="0" cont="0"/>
    </junction>
    <junction id="s" type="priority" x="100.00" y="0.00" incLanes="0_s_0" intLanes=":s_0_0" shape="100.05,0.00 96.75,0.00 99.95,0.00">
        <request index="0" response="0" foes="0" cont="0"/>
    </junction>
    <junction id="w" type="priority" x="0.00" y="100.00" incLanes="0_w_0" intLanes=":w_0_0" shape="0.00,99.95 0.00,103.25 0.00,100.05">
        <request index="0" response="0" foes="0" cont="0"/>
    </junction>

    <junction id=":0_16_0" type="internal" x="100.05" y="99.89" incLanes=":0_2_0 s_0_0" intLanes=":0_5_0 :0_6_0 :0_7_0 :0_8_0 :0_9_0 :0_13_0 :0_14_0"/>
    <junction id=":0_17_0" type="internal" x="100.00" y="103.10" incLanes=":0_3_0 e_0_0 s_0_0 w_0_0" intLanes=":0_4_0 :0_9_0 :0_14_0"/>
    <junction id=":0_18_0" type="internal" x="99.95" y="100.11" incLanes=":0_10_0 n_0_0" intLanes=":0_0_0 :0_1_0 :0_5_0 :0_6_0 :0_13_0 :0_14_0 :0_15_0"/>
    <junction id=":0_19_0" type="internal" x="100.00" y="96.90" incLanes=":0_11_0 e_0_0 n_0_0 w_0_0" intLanes=":0_1_0 :0_6_0 :0_12_0"/>

    <connection from="0_e" to="e_0" fromLane="0" toLane="0" via=":e_0_0" dir="t" state="M"/>
    <connection from="0_n" to="n_0" fromLane="0" toLane="0" via=":n_0_0" dir="t" state="M"/>
    <connection from="0_s" to="s_0" fromLane="0" toLane="0" via=":s_0_0" dir="t" state="M"/>
    <connection from="0_w" to="w_0" fromLane="0" toLane="0" via=":w_0_0" dir="t" state="M"/>
    <connection from="e_0" to="0_n" fromLane="0" toLane="0" via=":0_4_0" dir="r" state="m"/>
    <connection from="e_0" to="0_w" fromLane="0" toLane="0" via=":0_5_0" dir="s" state="m"/>
    <connection from="e_0" to="0_s" fromLane="0" toLane="0" via=":0_6_0" dir="l" state="m"/>
    <connection from="e_0" to="0_e" fromLane="0" toLane="0" via=":0_7_0" dir="t" state="m"/>
    <connection from="n_0" to="0_w" fromLane="0" toLane="0" via=":0_0_0" dir="r" state="M"/>
    <connection from="n_0" to="0_s" fromLane="0" toLane="0" via=":0_1_0" dir="s" state="M"/>
    <connection from="n_0" to="0_e" fromLane="0" toLane="0" via=":0_2_0" dir="l" state="m"/>
    <connection from="n_0" to="0_n" fromLane="0" toLane="0" via=":0_3_0" dir="t" state="m"/>
    <connection from="s_0" to="0_e" fromLane="0" toLane="0" via=":0_8_0" dir="r" state="M"/>
    <connection from="s_0" to="0_n" fromLane="0" toLane="0" via=":0_9_0" dir="s" state="M"/>
    <connection from="s_0" to="0_w" fromLane="0" toLane="0" via=":0_10_0" dir="l" state="m"/>
    <connection from="s_0" to="0_s" fromLane="0" toLane="0" via=":0_11_0" dir="t" state="m"/>
    <connection from="w_0" to="0_s" fromLane="0" toLane="0" via=":0_12_0" dir="r" state="m"/>
    <connection from="w_0" to="0_e" fromLane="0" toLane="0" via=":0_13_0" dir="s" state="m"/>
    <connection from="w_0" to="0_n" fromLane="0" toLane="0" via=":0_14_0" dir="l" state="m"/>
    <connection from="w_0" to="0_w" fromLane="0" toLane="0" via=":0_15_0" dir="t" state="m"/>

    <connection from=":0_0" to="0_w" fromLane="0" toLane="0" dir="r" state="M"/>
    <connection from=":0_1" to="0_s" fromLane="0" toLane="0" dir="s" state="M"/>
    <connection from=":0_2" to="0_e" fromLane="0" toLane="0" via=":0_16_0" dir="l" state="m"/>
    <connection from=":0_16" to="0_e" fromLane="0" toLane="0" dir="l" state="M"/>
    <connection from=":0_3" to="0_n" fromLane="0" toLane="0" via=":0_17_0" dir="t" state="m"/>
    <connection from=":0_17" to="0_n" fromLane="0" toLane="0" dir="t" state="M"/>
    <connection from=":0_4" to="0_n" fromLane="0" toLane="0" dir="r" state="M"/>
    <connection from=":0_5" to="0_w" fromLane="0" toLane="0" dir="s" state="M"/>
    <connection from=":0_6" to="0_s" fromLane="0" toLane="0" dir="l" state="M"/>
    <connection from=":0_7" to="0_e" fromLane="0" toLane="0" dir="t" state="M"/>
    <connection from=":0_8" to="0_e" fromLane="0" toLane="0" dir="r" state="M"/>
    <connection from=":0_9" to="0_n" fromLane="0" toLane="0" dir="s" state="M"/>
    <connection from=":0_10" to="0_w" fromLane="0" toLane="0" via=":0_18_0" dir="l" state="m"/>
    <connection from=":0_18" to="0_w" fromLane="0" toLane="0" dir="l" state="M"/>
    <connection from=":0_11" to="0_s" fromLane="0" toLane="0" via=":0_19_0" dir="t" state="m"/>
    <connection from=":0_19" to="0_s" fromLane="0" toLane="0" dir="t" state="M"/>
    <connection from=":0_12" to="0_s" fromLane="0" toLane="0" dir="r" state="M"/>
    <connection from=":0_13" to="0_e" fromLane="0" toLane="0" dir="s" state="M"/>
    <connection from=":0_14" to="0_n" fromLane="0" toLane="0" dir="l" state="M"/>
    <connection from=":0_15" to="0_w" fromLane="0" toLane="0" dir="t" state="M"/>
    <connection from=":e_0" to="e_0" fromLane="0" toLane="0" dir="t" state="M"/>
    <connection from=":n_0" to="n_0" fromLane="0" toLane="0" dir="t" state="M"/>
    <connection from=":s_0" to="s_0" fromLane="0" toLane="0" dir="t" state="M"/>
    <connection from=":w_0" to="w_0" fromLane="0" toLane="0" dir="t" state="M"/>

</net>
